
     RDKit          3D

 26 28  0  0  0  0  0  0  0  0999 V2000
   -9.7760  -20.8970   11.2730 C   0  0  0  0  0  0  0  0  0  0  0  0
  -11.2840  -21.0350   11.1770 C   0  0  0  0  0  0  0  0  0  0  0  0
  -11.7370  -22.4060   11.6720 C   0  0  0  0  0  0  0  0  0  0  0  0
  -11.6340  -20.8460    9.8140 O   0  0  0  0  0  0  0  0  0  0  0  0
  -12.9840  -20.5760    9.4650 C   0  0  0  0  0  0  0  0  0  0  0  0
  -13.5450  -19.4610   10.3100 C   0  0  2  0  0  0  0  0  0  0  0  0
  -12.9990  -18.1730    9.9410 N   0  0  0  0  0  0  0  0  0  0  0  0
  -13.7510  -17.0400    9.8340 C   0  0  0  0  0  0  0  0  0  0  0  0
  -14.9450  -17.0420    9.9250 O   0  0  0  0  0  0  0  0  0  0  0  0
  -13.0120  -15.8960    9.6290 N   0  0  0  0  0  0  0  0  0  0  0  0
  -13.5060  -14.5900    9.6080 C   0  0  0  0  0  0  0  0  0  0  0  0
  -14.6370  -14.2180   10.3410 C   0  0  0  0  0  0  0  0  0  0  0  0
  -15.0810  -12.8990   10.2950 C   0  0  0  0  0  0  0  0  0  0  0  0
  -16.5000  -12.4410   11.2360 Cl  0  0  0  0  0  0  0  0  0  0  0  0
  -14.4230  -11.9530    9.5430 C   0  0  0  0  0  0  0  0  0  0  0  0
  -13.2940  -12.3180    8.8370 C   0  0  0  0  0  0  0  0  0  0  0  0
  -12.8310  -13.6240    8.8700 C   0  0  0  0  0  0  0  0  0  0  0  0
  -11.3880  -14.0590    8.0020 Cl  0  0  0  0  0  0  0  0  0  0  0  0
  -13.2360  -19.7220   11.7720 C   0  0  2  0  0  0  0  0  0  0  0  0
  -13.7240  -18.5680   12.6010 C   0  0  0  0  0  0  0  0  0  0  0  0
  -12.8560  -17.5310   12.9720 C   0  0  0  0  0  0  0  0  0  0  0  0
  -13.3440  -16.4470   13.7200 C   0  0  0  0  0  0  0  0  0  0  0  0
  -14.6810  -16.4000   14.0930 C   0  0  0  0  0  0  0  0  0  0  0  0
  -15.5450  -17.4520   13.7250 C   0  0  0  0  0  0  0  0  0  0  0  0
  -15.0610  -18.5240   12.9830 C   0  0  0  0  0  0  0  0  0  0  0  0
  -11.8680  -19.9900   11.9620 O   0  0  0  0  0  0  0  0  0  0  0  0
  2  1  1  0
  3  2  1  0
  4  2  1  0
  5  4  1  0
  6  5  1  0
  6  7  1  6
  8  7  1  0
  9  8  2  0
 10  8  1  0
 11 10  1  0
 12 11  1  0
 13 12  2  0
 14 13  1  0
 15 13  1  0
 16 15  2  0
 17 16  1  0
 17 11  2  0
 18 17  1  0
 19  6  1  0
 19 20  1  1
 21 20  2  0
 22 21  1  0
 23 22  2  0
 24 23  1  0
 25 24  2  0
 25 20  1  0
 26 19  1  0
 26  2  1  0
M  END

$$$$
